data_image0
_cell_length_a       5.88353
_cell_length_b       5.88353
_cell_length_c       59.5227
_cell_angle_alpha    90
_cell_angle_beta     90
_cell_angle_gamma    90

loop_
  _atom_site_label
  _atom_site_occupancy
  _atom_site_fract_x
  _atom_site_fract_y
  _atom_site_fract_z
  _atom_site_thermal_displace_type
  _atom_site_B_iso_or_equiv
  _atom_site_type_symbol
  Ag1      1.0000 0.25000  0.25000  0.16800  Biso   1.000  Ag
  Ag2      1.0000 0.75000  0.25000  0.16800  Biso   1.000  Ag
  Ag3      1.0000 0.25000  0.75000  0.16800  Biso   1.000  Ag
  Ag4      1.0000 0.75000  0.75000  0.16800  Biso   1.000  Ag
  Ag5      1.0000 0.00000  0.00000  0.20295  Biso   1.000  Ag
  Ag6      1.0000 0.50000  0.00000  0.20295  Biso   1.000  Ag
  Ag7      1.0000 0.00000  0.50000  0.20295  Biso   1.000  Ag
  Ag8      1.0000 0.50000  0.50000  0.20295  Biso   1.000  Ag
  Ag9      1.0000 0.25000  0.25000  0.23790  Biso   1.000  Ag
  Ag10     1.0000 0.75000  0.25000  0.23790  Biso   1.000  Ag
  Ag11     1.0000 0.25000  0.75000  0.23790  Biso   1.000  Ag
  Ag12     1.0000 0.75000  0.75000  0.23790  Biso   1.000  Ag
  Ag13     1.0000 0.00000  0.00000  0.27284  Biso   1.000  Ag
  Ag14     1.0000 0.50000  0.00000  0.27284  Biso   1.000  Ag
  Ag15     1.0000 0.00000  0.50000  0.27284  Biso   1.000  Ag
  Ag16     1.0000 0.50000  0.50000  0.27284  Biso   1.000  Ag
  Ag17     1.0000 0.25000  0.25000  0.30779  Biso   1.000  Ag
  Ag18     1.0000 0.75000  0.25000  0.30779  Biso   1.000  Ag
  Ag19     1.0000 0.25000  0.75000  0.30779  Biso   1.000  Ag
  Ag20     1.0000 0.75000  0.75000  0.30779  Biso   1.000  Ag
  Ag21     1.0000 0.00000  0.00000  0.34274  Biso   1.000  Ag
  Ag22     1.0000 0.50000  0.00000  0.34274  Biso   1.000  Ag
  Ag23     1.0000 0.00000  0.50000  0.34274  Biso   1.000  Ag
  Ag24     1.0000 0.50000  0.50000  0.34274  Biso   1.000  Ag
  Ag25     1.0000 0.25000  0.25000  0.37769  Biso   1.000  Ag
  Ag26     1.0000 0.75000  0.25000  0.37769  Biso   1.000  Ag
  Ag27     1.0000 0.25000  0.75000  0.37769  Biso   1.000  Ag
  Ag28     1.0000 0.75000  0.75000  0.37769  Biso   1.000  Ag
  Ag29     1.0000 0.00000  0.00000  0.41263  Biso   1.000  Ag
  Ag30     1.0000 0.50000  0.00000  0.41263  Biso   1.000  Ag
  Ag31     1.0000 0.00000  0.50000  0.41263  Biso   1.000  Ag
  Ag32     1.0000 0.50000  0.50000  0.41263  Biso   1.000  Ag
  Ag33     1.0000 0.25000  0.25000  0.44758  Biso   1.000  Ag
  Ag34     1.0000 0.75000  0.25000  0.44758  Biso   1.000  Ag
  Ag35     1.0000 0.25000  0.75000  0.44758  Biso   1.000  Ag
  Ag36     1.0000 0.75000  0.75000  0.44758  Biso   1.000  Ag
  Ag37     1.0000 0.00000  0.00000  0.48253  Biso   1.000  Ag
  Ag38     1.0000 0.50000  0.00000  0.48253  Biso   1.000  Ag
  Ag39     1.0000 0.00000  0.50000  0.48253  Biso   1.000  Ag
  Ag40     1.0000 0.50000  0.50000  0.48253  Biso   1.000  Ag
  Ag41     1.0000 0.25000  0.25000  0.51747  Biso   1.000  Ag
  Ag42     1.0000 0.75000  0.25000  0.51747  Biso   1.000  Ag
  Ag43     1.0000 0.25000  0.75000  0.51747  Biso   1.000  Ag
  Ag44     1.0000 0.75000  0.75000  0.51747  Biso   1.000  Ag
  Ag45     1.0000 0.00000  0.00000  0.55242  Biso   1.000  Ag
  Ag46     1.0000 0.50000  0.00000  0.55242  Biso   1.000  Ag
  Ag47     1.0000 0.00000  0.50000  0.55242  Biso   1.000  Ag
  Ag48     1.0000 0.50000  0.50000  0.55242  Biso   1.000  Ag
  Ag49     1.0000 0.25000  0.25000  0.58737  Biso   1.000  Ag
  Ag50     1.0000 0.75000  0.25000  0.58737  Biso   1.000  Ag
  Ag51     1.0000 0.25000  0.75000  0.58737  Biso   1.000  Ag
  Ag52     1.0000 0.75000  0.75000  0.58737  Biso   1.000  Ag
  Ag53     1.0000 0.00000  0.00000  0.62231  Biso   1.000  Ag
  Ag54     1.0000 0.50000  0.00000  0.62231  Biso   1.000  Ag
  Ag55     1.0000 0.00000  0.50000  0.62231  Biso   1.000  Ag
  Ag56     1.0000 0.50000  0.50000  0.62231  Biso   1.000  Ag
  Ag57     1.0000 0.25000  0.25000  0.65726  Biso   1.000  Ag
  Ag58     1.0000 0.75000  0.25000  0.65726  Biso   1.000  Ag
  Ag59     1.0000 0.25000  0.75000  0.65726  Biso   1.000  Ag
  Ag60     1.0000 0.75000  0.75000  0.65726  Biso   1.000  Ag
  Ag61     1.0000 0.00000  0.00000  0.69221  Biso   1.000  Ag
  Ag62     1.0000 0.50000  0.00000  0.69221  Biso   1.000  Ag
  Ag63     1.0000 0.00000  0.50000  0.69221  Biso   1.000  Ag
  Ag64     1.0000 0.50000  0.50000  0.69221  Biso   1.000  Ag
  Ag65     1.0000 0.25000  0.25000  0.72716  Biso   1.000  Ag
  Ag66     1.0000 0.75000  0.25000  0.72716  Biso   1.000  Ag
  Ag67     1.0000 0.25000  0.75000  0.72716  Biso   1.000  Ag
  Ag68     1.0000 0.75000  0.75000  0.72716  Biso   1.000  Ag
  Ag69     1.0000 0.00000  0.00000  0.76210  Biso   1.000  Ag
  Ag70     1.0000 0.50000  0.00000  0.76210  Biso   1.000  Ag
  Ag71     1.0000 0.00000  0.50000  0.76210  Biso   1.000  Ag
  Ag72     1.0000 0.50000  0.50000  0.76210  Biso   1.000  Ag
  Ag73     1.0000 0.25000  0.25000  0.79705  Biso   1.000  Ag
  Ag74     1.0000 0.75000  0.25000  0.79705  Biso   1.000  Ag
  Ag75     1.0000 0.25000  0.75000  0.79705  Biso   1.000  Ag
  Ag76     1.0000 0.75000  0.75000  0.79705  Biso   1.000  Ag
  Ag77     1.0000 0.00000  0.00000  0.83200  Biso   1.000  Ag
  Ag78     1.0000 0.50000  0.00000  0.83200  Biso   1.000  Ag
  Ag79     1.0000 0.00000  0.50000  0.83200  Biso   1.000  Ag
  Ag80     1.0000 0.50000  0.50000  0.83200  Biso   1.000  Ag
